#	Name:			2wvt_ligand
#	Creating user name:	suminyi
#	Creation time:		Sun Sep 30 06:48:43 2018

#	Modifying user name:	suminyi
#	Modification time:	Sun Sep 30 06:48:44 2018

@<TRIPOS>MOLECULE
2wvt_ligand
   29    29     1     1     0
SMALL
MMFF94_CHARGES


@<TRIPOS>ATOM
      1 O2        -27.7290    0.9920   29.3090 O.3       1 FHN        -0.6800 
      2 C2        -27.0330    2.1630   28.8140 C.3       1 FHN         0.2800 
      3 C3        -25.6630    1.7410   28.2990 C.3       1 FHN         0.2800 
      4 O3        -24.9660    1.1290   29.3780 O.3       1 FHN        -0.6800 
      5 C4        -24.9190    2.9610   27.8180 C.3       1 FHN         0.2800 
      6 O4        -24.7170    3.8990   28.8960 O.3       1 FHN        -0.6800 
      7 C5        -25.7370    3.6090   26.7150 C.3       1 FHN         0.5030 
      8 C7        -25.0640    4.9000   26.2620 C.3       1 FHN         0.2800 
      9 O7        -25.8680    5.4510   25.2360 O.3       1 FHN        -0.6800 
     10 N         -27.1200    3.9780   27.1270 N.4       1 FHN        -0.9060 
     11 C1        -27.8450    2.8270   27.7290 C.3       1 FHN         0.5030 
     12 C6        -28.2960    1.8110   26.6530 C.3       1 FHN         0.2800 
     13 O6        -29.0250    2.5480   25.6680 O.3       1 FHN        -0.6800 
     14 H1        -27.2266    0.6009   30.0141 H         1 FHN         0.4000 
     15 H2        -26.8982    2.8776   29.6393 H         1 FHN         0.0000 
     16 H3        -25.7733    1.0256   27.4708 H         1 FHN         0.0000 
     17 H4        -25.4539    0.3719   29.6799 H         1 FHN         0.4000 
     18 H5        -23.9397    2.6571   27.4197 H         1 FHN         0.0000 
     19 H6        -24.2113    3.4840   29.5848 H         1 FHN         0.4000 
     20 H7        -25.7936    2.9053   25.8714 H         1 FHN         0.0000 
     21 H8        -24.0562    4.6852   25.8771 H         1 FHN         0.0000 
     22 H9        -24.9925    5.6039   27.1043 H         1 FHN         0.0000 
     23 H10       -25.4767    6.2603   24.9287 H         1 FHN         0.4000 
     24 H11       -27.6280    4.2950   26.3161 H         1 FHN         0.4500 
     25 H12       -27.0705    4.7224   27.8048 H         1 FHN         0.4500 
     26 H13       -28.7546    3.2264   28.2013 H         1 FHN         0.0000 
     27 H14       -28.9405    1.0424   27.1045 H         1 FHN         0.0000 
     28 H15       -27.4190    1.3309   26.1943 H         1 FHN         0.0000 
     29 H16       -29.3207    1.9563   24.9861 H         1 FHN         0.4000 
@<TRIPOS>BOND
     1    1    2 1    
     2    2    3 1    
     3    2   11 1    
     4    3    4 1    
     5    3    5 1    
     6    5    6 1    
     7    5    7 1    
     8    7    8 1    
     9    7   10 1    
    10    8    9 1    
    11   10   11 1    
    12   11   12 1    
    13   12   13 1    
    14    1   14 1    
    15    2   15 1    
    16    3   16 1    
    17    4   17 1    
    18    5   18 1    
    19    6   19 1    
    20    7   20 1    
    21    8   21 1    
    22    8   22 1    
    23    9   23 1    
    24   10   24 1    
    25   10   25 1    
    26   11   26 1    
    27   12   27 1    
    28   12   28 1    
    29   13   29 1    
@<TRIPOS>SUBSTRUCTURE
     1 FHN         1 PERM              0 ****  ****    0 ROOT 
@<TRIPOS>NORMAL
@<TRIPOS>ALT_TYPE
MMFF94_ALT_TYPE_SET 
MMFF94 2 CR 3 CR 5 CR 7 CR 8 CR 11 CR 12 CR 15 HC 16 HC 18 HC 20 HC \
21 HC 22 HC 26 HC 27 HC 28 HC 24 HNR+ 25 HNR+ 14 HOR \
17 HOR 19 HOR 23 HOR 29 HOR 1 OR 4 OR 6 OR 9 OR 13 OR \
10 NR+ 
