2vtr_ligand

Created by X-TOOL on Fri Sep 26 17:34:41 2014
 26 27  0  0  0  0  0  0  0  0999 V2000
   31.5080    8.0800   66.5280  C 0  0  0  4  0  4
   30.6410    8.1280   65.2800  C 0  0  0  2  0  4
   31.4750    8.2890   64.0120  C 0  0  0  4  0  4
   29.8220    6.9220   65.1870  N 0  0  0  2  0  3
   28.7000    6.8590   64.3420  C 0  0  0  1  0  3
   28.2330    7.9800   63.6610  C 0  0  0  2  0  3
   27.1300    7.8160   62.8280  C 0  0  0  1  0  3
   26.4960    9.1700   61.9610 Cl 0  0  0  1  0  1
   26.4940    6.6610   62.6220  N 0  0  0  1  0  2
   26.9350    5.5870   63.2940  C 0  0  0  1  0  3
   26.4980    4.2820   63.3230  C 0  0  0  1  0  3
   25.3960    3.7750   62.5820  C 0  0  0  1  0  2
   24.5150    3.3680   61.9800  N 0  0  0  1  0  1
   27.3630    3.5990   64.1650  C 0  0  0  2  0  3
   28.3160    4.4390   64.6770  N 0  0  0  1  0  2
   28.0150    5.6630   64.1490  N 0  0  0  1  0  3
   32.1188    8.9931   66.5855  H 0  0  0  1  0  1
   32.1669    7.2004   66.4831  H 0  0  0  1  0  1
   30.8657    8.0120   67.4184  H 0  0  0  1  0  1
   29.9724    8.9976   65.3625  H 0  0  0  1  0  1
   30.8094    8.3189   63.1367  H 0  0  0  1  0  1
   32.1668    7.4390   63.9177  H 0  0  0  1  0  1
   32.0499    9.2252   64.0676  H 0  0  0  1  0  1
   30.0722    6.0989   65.7534  H 0  0  0  1  0  1
   28.7135    8.9505   63.7760  H 0  0  0  1  0  1
   27.2936    2.5356   64.3893  H 0  0  0  1  0  1
  1  2  1  0  0  2
  2  3  1  0  0  2
  2  4  1  0  0  2
  4  5  1  0  0  2
  5  6  2  0  0  1
  5 16  1  0  0  1
  6  7  1  0  0  1
  7  8  1  0  0  2
  7  9  2  0  0  1
  9 10  1  0  0  1
 10 11  2  0  0  1
 10 16  1  0  0  1
 11 12  1  0  0  2
 11 14  1  0  0  1
 12 13  3  0  0  2
 14 15  2  0  0  1
 15 16  1  0  0  1
  1 17  1  0  0  2
  1 18  1  0  0  2
  1 19  1  0  0  2
  2 20  1  0  0  2
  3 21  1  0  0  2
  3 22  1  0  0  2
  3 23  1  0  0  2
  4 24  1  0  0  2
  6 25  1  0  0  2
 14 26  1  0  0  2
M  END
> <MOLECULAR_FORMULA>
C10H10N5Cl

> <MOLECULAR_WEIGHT>
235.6

> <NUM_HB_ATOMS>
5  

> <NUM_ROTOR>
1  

> <XLOGP2>
1.23 

$$$$
