#	Name:			1p1q_ligand
#	Creating user name:	suminyi
#	Creation time:		Sun Sep 30 06:50:53 2018

#	Modifying user name:	suminyi
#	Modification time:	Sun Sep 30 06:50:53 2018

@<TRIPOS>MOLECULE
1p1q_ligand
   23    23     1     1     0
SMALL
MMFF94_CHARGES


@<TRIPOS>ATOM
      1 N          48.2620   25.2480   42.6920 N.4       1 MOL        -0.8530 
      2 CA         47.1490   26.2700   42.9800 C.3       1 MOL         0.3970 
      3 C          46.8790   26.5410   44.4520 C.2       1 MOL         0.9060 
      4 OT1        46.0590   27.3780   44.7730 O.co2     1 MOL        -0.9000 
      5 OT2        47.7180   26.1530   45.2390 O.co2     1 MOL        -0.9000 
      6 CB         45.8200   25.9740   42.2580 C.3       1 MOL         0.1382 
      7 CG         46.0020   25.8340   40.7740 C.2       1 MOL        -0.1238 
      8 CD1        45.5630   26.8460   39.8470 C.2       1 MOL         0.6156 
      9 CD2        46.3780   24.7360   40.0760 C.2       1 MOL        -0.0615 
     10 CE2        46.6850   23.3870   40.6660 C.3       1 MOL         0.1382 
     11 OE1        45.0180   27.9140   40.0300 O.2       1 MOL        -0.5700 
     12 NE1        45.8000   26.3060   38.6420 N.am      1 MOL        -0.3945 
     13 OE2        46.3140   24.9690   38.7210 O.3       1 MOL        -0.1122 
     14 H1         48.5020   25.2060   41.6710 H         1 MOL         0.4500 
     15 H2         48.1050   24.2810   43.0550 H         1 MOL         0.4500 
     16 H3         49.1540   25.5530   43.1210 H         1 MOL         0.4500 
     17 H4         47.5260   27.2200   42.5920 H         1 MOL         0.0000 
     18 H5         45.0950   26.7660   42.4670 H         1 MOL         0.0000 
     19 H6         45.3970   25.0590   42.6610 H         1 MOL         0.0000 
     20 H7         47.7080   23.0850   40.4590 H         1 MOL         0.0000 
     21 H8         46.0080   22.6330   40.2660 H         1 MOL         0.0000 
     22 H9         46.5660   23.3680   41.7450 H         1 MOL         0.0000 
     23 H10        45.1090   26.4610   37.9290 H         1 MOL         0.3700 
@<TRIPOS>BOND
     1    1    2 1    
     2    2    3 1    
     3    2    6 1    
     4    3    4 ar   
     5    3    5 ar   
     6    6    7 1    
     7    7    8 1    
     8    7    9 2    
     9    8   11 2    
    10    8   12 am   
    11    9   10 1    
    12    9   13 1    
    13   12   13 1    
    14    1   14 1    
    15    1   15 1    
    16    1   16 1    
    17    2   17 1    
    18    6   18 1    
    19    6   19 1    
    20   10   20 1    
    21   10   21 1    
    22   10   22 1    
    23   12   23 1    
@<TRIPOS>SUBSTRUCTURE
     1 MOL         1 PERM              0 ****  ****    0 ROOT 
@<TRIPOS>NORMAL
@<TRIPOS>ALT_TYPE
MMFF94_ALT_TYPE_SET 
MMFF94 2 CR 6 CR 10 CR 3 CO2M 8 C=ON 7 C=C 9 C=C 17 HC 18 HC 19 HC 20 HC \
21 HC 22 HC 23 HNCO 14 HNR+ 15 HNR+ 16 HNR+ 4 O2CM 5 O2CM \
11 O=CN 13 OC=C 1 NR+ 12 NC=O 
