#	Name:			1p1q_ligand
#	Creating user name:	suminyi
#	Creation time:		Sun Sep 30 06:48:36 2018

#	Modifying user name:	suminyi
#	Modification time:	Sun Sep 30 06:48:36 2018

@<TRIPOS>MOLECULE
1p1q_ligand
   23    23     1     1     0
SMALL
MMFF94_CHARGES


@<TRIPOS>ATOM
      1 N          48.1640   25.1450   42.7800 N.4       1 MOL        -0.8530 
      2 CA         47.1230   26.2210   42.7750 C.3       1 MOL         0.3970 
      3 C          46.7770   26.5840   44.2690 C.2       1 MOL         0.9060 
      4 OT1        45.8330   27.3970   44.4690 O.co2     1 MOL        -0.9000 
      5 OT2        47.5140   26.0870   45.1680 O.co2     1 MOL        -0.9000 
      6 CB         45.8720   25.7340   42.0020 C.3       1 MOL         0.1382 
      7 CG         46.1380   25.4240   40.5560 C.2       1 MOL        -0.1238 
      8 CD1        46.0410   26.2930   39.4350 C.2       1 MOL         0.6156 
      9 CD2        46.6180   24.3030   39.9520 C.2       1 MOL        -0.0615 
     10 CE2        46.8980   22.9320   40.4510 C.3       1 MOL         0.1382 
     11 OE1        45.5540   27.5140   39.6680 O.2       1 MOL        -0.5700 
     12 NE1        46.4010   25.8480   38.2670 N.am      1 MOL        -0.3945 
     13 OE2        46.7930   24.4970   38.5990 O.3       1 MOL        -0.1122 
     14 H1         48.3981   24.8996   41.8308 H         1 MOL         0.4500 
     15 H2         47.8059   24.3332   43.2583 H         1 MOL         0.4500 
     16 H3         48.9889   25.4777   43.2542 H         1 MOL         0.4500 
     17 H4         47.5233   27.1141   42.2728 H         1 MOL         0.0000 
     18 H5         45.1044   26.5202   42.0530 H         1 MOL         0.0000 
     19 H6         45.4960   24.8222   42.4891 H         1 MOL         0.0000 
     20 H7         47.2844   22.3138   39.6273 H         1 MOL         0.0000 
     21 H8         45.9703   22.4866   40.8396 H         1 MOL         0.0000 
     22 H9         47.6466   22.9803   41.2555 H         1 MOL         0.0000 
     23 H10        46.4054   26.3132   37.3818 H         1 MOL         0.3700 
@<TRIPOS>BOND
     1    1    2 1    
     2    2    3 1    
     3    2    6 1    
     4    3    4 ar   
     5    3    5 ar   
     6    6    7 1    
     7    7    8 1    
     8    7    9 2    
     9    8   11 2    
    10    8   12 am   
    11    9   10 1    
    12    9   13 1    
    13   12   13 1    
    14    1   14 1    
    15    1   15 1    
    16    1   16 1    
    17    2   17 1    
    18    6   18 1    
    19    6   19 1    
    20   10   20 1    
    21   10   21 1    
    22   10   22 1    
    23   12   23 1    
@<TRIPOS>SUBSTRUCTURE
     1 MOL         1 PERM              0 ****  ****    0 ROOT 
@<TRIPOS>NORMAL
@<TRIPOS>ALT_TYPE
MMFF94_ALT_TYPE_SET 
MMFF94 2 CR 6 CR 10 CR 3 CO2M 8 C=ON 7 C=C 9 C=C 17 HC 18 HC 19 HC 20 HC \
21 HC 22 HC 23 HNCO 14 HNR+ 15 HNR+ 16 HNR+ 4 O2CM 5 O2CM \
11 O=CN 13 OC=C 1 NR+ 12 NC=O 
