#	Name:			2hb1_ligand
#	Creating user name:	suminyi
#	Creation time:		Sun Sep 30 06:48:40 2018

#	Modifying user name:	suminyi
#	Modification time:	Sun Sep 30 06:48:40 2018

@<TRIPOS>MOLECULE
2hb1_ligand
   17    17     1     1     0
SMALL
MMFF94_CHARGES


@<TRIPOS>ATOM
      1 C1         45.2050   12.9580    1.1080 C.2       1 MOL        -0.1100 
      2 C2         45.7690   13.3870    2.3300 C.2       1 MOL         0.0570 
      3 S3         44.4110   14.2720    0.3820 S.3       1 MOL        -0.0800 
      4 C4         44.7680   15.3960    1.6130 C.2       1 MOL        -0.1920 
      5 C5         45.5320   14.7580    2.6290 C.2       1 MOL         0.0620 
      6 C6         44.3330   16.7240    1.5480 C.2       1 MOL         1.0320 
      7 O7         43.6320   17.0320    0.4400 O.co2     1 MOL        -0.9000 
      8 O8         46.0460   15.3500    3.8450 O.3       1 MOL        -0.3420 
      9 C9         47.2700   16.0930    3.6600 C.3       1 MOL         0.1740 
     10 C10        47.5730   16.9740    4.8740 C.2       1 MOL         0.9060 
     11 O13        48.7260   17.6560    4.7940 O.co2     1 MOL        -0.9000 
     12 O14        44.5590   17.5410    2.4090 O.co2     1 MOL        -0.9000 
     13 O15        46.8560   17.0500    5.8220 O.co2     1 MOL        -0.9000 
     14 BR19       46.7460   12.2290    3.4440 Br        1 MOL        -0.0570 
     15 H1         45.2688   11.9508    0.6989 H         1 MOL         0.1500 
     16 H2         47.1709   16.7313    2.7696 H         1 MOL         0.0000 
     17 H3         48.1000   15.3861    3.5139 H         1 MOL         0.0000 
@<TRIPOS>BOND
     1    1    2 2    
     2    1    3 1    
     3    2    5 1    
     4    2   14 1    
     5    3    4 1    
     6    4    5 2    
     7    4    6 1    
     8    5    8 1    
     9    6    7 ar   
    10    6   12 ar   
    11    8    9 1    
    12    9   10 1    
    13   10   11 ar   
    14   10   13 ar   
    15    1   15 1    
    16    9   16 1    
    17    9   17 1    
@<TRIPOS>SUBSTRUCTURE
     1 MOL         1 PERM              0 ****  ****    0 ROOT 
@<TRIPOS>NORMAL
@<TRIPOS>ALT_TYPE
MMFF94_ALT_TYPE_SET 
MMFF94 9 CR 1 C5A 4 C5A 2 C5B 5 C5B 6 CO2M 10 CO2M 15 HC 16 HC 17 HC \
7 O2CM 11 O2CM 12 O2CM 13 O2CM 8 OC=C 3 STHI 14 BR 
