#	Name:			2hb1_ligand
#	Creating user name:	suminyi
#	Creation time:		Sun Sep 30 06:51:15 2018

#	Modifying user name:	suminyi
#	Modification time:	Sun Sep 30 06:51:15 2018

@<TRIPOS>MOLECULE
2hb1_ligand
   17    17     1     1     0
SMALL
MMFF94_CHARGES


@<TRIPOS>ATOM
      1 C1         45.0830   13.4220    1.1970 C.2       1 MOL        -0.1100 
      2 C2         45.6520   13.7110    2.4060 C.2       1 MOL         0.0570 
      3 S3         44.2200   14.8000    0.5860 S.3       1 MOL        -0.0800 
      4 C4         44.5680   15.7300    2.0240 C.2       1 MOL        -0.1920 
      5 C5         45.3750   15.0250    2.8800 C.2       1 MOL         0.0620 
      6 C6         44.0160   17.0670    2.2480 C.2       1 MOL         1.0320 
      7 O7         43.2370   17.5160    1.4280 O.co2     1 MOL        -0.9000 
      8 O8         45.9050   15.4870    4.0650 O.3       1 MOL        -0.3420 
      9 C9         47.0140   16.4250    3.9300 C.3       1 MOL         0.1740 
     10 C10        47.4430   17.1130    5.2130 C.2       1 MOL         0.9060 
     11 O13        48.6280   17.3480    5.3620 O.co2     1 MOL        -0.9000 
     12 O14        44.1930   17.6640    3.2940 O.co2     1 MOL        -0.9000 
     13 O15        46.6430   17.3100    6.1200 O.co2     1 MOL        -0.9000 
     14 Br19       46.7080   12.4660    3.3300 Br        1 MOL        -0.0570 
     15 H1         45.1240   12.5200    0.5990 H         1 MOL         0.1500 
     16 H2         46.7430   17.2170    3.2290 H         1 MOL         0.0000 
     17 H3         47.8840   15.8890    3.5430 H         1 MOL         0.0000 
@<TRIPOS>BOND
     1    1    2 2    
     2    1    3 1    
     3    2    5 1    
     4    2   14 1    
     5    3    4 1    
     6    4    5 2    
     7    4    6 1    
     8    5    8 1    
     9    6    7 ar   
    10    6   12 ar   
    11    8    9 1    
    12    9   10 1    
    13   10   11 ar   
    14   10   13 ar   
    15    1   15 1    
    16    9   16 1    
    17    9   17 1    
@<TRIPOS>SUBSTRUCTURE
     1 MOL         1 PERM              0 ****  ****    0 ROOT 
@<TRIPOS>NORMAL
@<TRIPOS>ALT_TYPE
MMFF94_ALT_TYPE_SET 
MMFF94 9 CR 1 C5A 4 C5A 2 C5B 5 C5B 6 CO2M 10 CO2M 15 HC 16 HC 17 HC \
7 O2CM 11 O2CM 12 O2CM 13 O2CM 8 OC=C 3 STHI 14 BR 
