#	Name:			2xj7_ligand
#	Creating user name:	suminyi
#	Creation time:		Sun Sep 30 06:50:58 2018

#	Modifying user name:	suminyi
#	Modification time:	Sun Sep 30 06:50:58 2018

@<TRIPOS>MOLECULE
2xj7_ligand
   35    36     1     1     0
SMALL
MMFF94_CHARGES


@<TRIPOS>ATOM
      1 O1          0.4360  -32.3740   32.3770 O.2       1 MOL        -0.5700 
      2 C8          1.6020  -32.4420   32.0230 C.2       1 MOL         0.5690 
      3 C10         2.0130  -33.0690   30.7250 C.3       1 MOL         0.0610 
      4 N2          2.6130  -31.9850   32.7800 N.am      1 MOL        -0.7301 
      5 C2          2.5830  -31.3140   34.0980 C.3       1 MOL         0.3001 
      6 C3          2.3750  -32.3270   35.2630 C.3       1 MOL         0.2800 
      7 O4          3.6570  -32.6370   35.8130 O.3       1 MOL        -0.6800 
      8 C4          1.4230  -31.7980   36.3720 C.3       1 MOL         0.2800 
      9 O2          1.1500  -32.8420   37.3170 O.3       1 MOL        -0.6800 
     10 C1          1.6030  -30.1290   34.1740 C.3       1 MOL         0.5030 
     11 N1          0.1890  -30.6230   34.4110 N.4       1 MOL        -0.9590 
     12 C5          0.0790  -31.3930   35.7150 C.3       1 MOL         0.5030 
     13 C9         -0.8210  -29.5170   34.5160 C.3       1 MOL         0.5030 
     14 C7         -1.7940  -29.9000   35.6400 C.3       1 MOL         0.0000 
     15 C6         -0.8790  -30.6100   36.6440 C.3       1 MOL         0.2800 
     16 O3         -0.1980  -29.5830   37.3680 O.3       1 MOL        -0.6800 
     17 H1          2.9650  -33.5900   30.8370 H         1 MOL         0.0000 
     18 H2          2.1280  -32.3000   29.9640 H         1 MOL         0.0000 
     19 H3          1.2590  -33.7860   30.4030 H         1 MOL         0.0000 
     20 H4          3.5520  -32.0940   32.3920 H         1 MOL         0.3700 
     21 H5          3.5760  -30.8660   34.2300 H         1 MOL         0.0000 
     22 H6          1.9260  -33.2350   34.8510 H         1 MOL         0.0000 
     23 H7          3.5720  -33.4680   36.3630 H         1 MOL         0.4000 
     24 H8          1.8860  -30.9380   36.8640 H         1 MOL         0.0000 
     25 H9          1.1660  -32.4380   38.2670 H         1 MOL         0.4000 
     26 H10         1.6620  -29.5470   33.2510 H         1 MOL         0.0000 
     27 H11         1.8930  -29.4710   35.0000 H         1 MOL         0.0000 
     28 H12        -0.0060  -31.2900   33.6170 H         1 MOL         0.4500 
     29 H13        -0.4220  -32.3260   35.4460 H         1 MOL         0.0000 
     30 H14        -1.3110  -29.3770   33.5520 H         1 MOL         0.0000 
     31 H15        -0.2730  -28.6130   34.8000 H         1 MOL         0.0000 
     32 H16        -2.5540  -30.5900   35.2680 H         1 MOL         0.0000 
     33 H17        -2.2830  -29.0260   36.0770 H         1 MOL         0.0000 
     34 H18        -1.4290  -31.2740   37.3200 H         1 MOL         0.0000 
     35 H19        -0.2050  -29.8440   38.3720 H         1 MOL         0.4000 
@<TRIPOS>BOND
     1    1    2 2    
     2    2    3 1    
     3    2    4 am   
     4    4    5 1    
     5    5    6 1    
     6    5   10 1    
     7    6    7 1    
     8    6    8 1    
     9    8    9 1    
    10    8   12 1    
    11   10   11 1    
    12   11   12 1    
    13   11   13 1    
    14   12   15 1    
    15   13   14 1    
    16   14   15 1    
    17   15   16 1    
    18    3   17 1    
    19    3   18 1    
    20    3   19 1    
    21    4   20 1    
    22    5   21 1    
    23    6   22 1    
    24    7   23 1    
    25    8   24 1    
    26    9   25 1    
    27   10   26 1    
    28   10   27 1    
    29   11   28 1    
    30   12   29 1    
    31   13   30 1    
    32   13   31 1    
    33   14   32 1    
    34   14   33 1    
    35   15   34 1    
    36   16   35 1    
@<TRIPOS>SUBSTRUCTURE
     1 MOL         1 PERM              0 ****  ****    0 ROOT 
@<TRIPOS>NORMAL
@<TRIPOS>ALT_TYPE
MMFF94_ALT_TYPE_SET 
MMFF94 3 CR 5 CR 6 CR 8 CR 10 CR 12 CR 13 CR 14 CR 15 CR 2 C=ON 17 HC \
18 HC 19 HC 21 HC 22 HC 24 HC 26 HC 27 HC 29 HC 30 HC \
31 HC 32 HC 33 HC 34 HC 20 HNCO 28 HNR+ 23 HOR 25 HOR \
35 HOR 1 O=CN 7 OR 9 OR 16 OR 11 NR+ 4 NC=O 
