#	Name:			3b65_ligand
#	Creating user name:	suminyi
#	Creation time:		Sun Sep 30 06:49:07 2018

#	Modifying user name:	suminyi
#	Modification time:	Sun Sep 30 06:49:07 2018

@<TRIPOS>MOLECULE
3b65_ligand
   39    40     1     1     0
SMALL
MMFF94_CHARGES


@<TRIPOS>ATOM
      1 C5         26.2140    3.3820    3.9210 C.ar      1 MOL        -0.1500 
      2 C4         25.2350    4.3730    3.8580 C.ar      1 MOL         0.0810 
      3 I7         23.2180    3.8780    4.1630 I         1 MOL        -0.0810 
      4 C3         25.6120    5.6870    3.6050 C.ar      1 MOL         0.0730 
      5 C8         24.6460    6.7400    3.5080 C.1       1 MOL         0.4841 
      6 N8         23.8880    7.5820    3.4250 N.1       1 MOL        -0.5571 
      7 C2         26.9540    6.0080    3.4220 C.ar      1 MOL        -0.1500 
      8 C1         27.9250    5.0150    3.4860 C.ar      1 MOL        -0.1500 
      9 C6         27.5590    3.6950    3.7360 C.ar      1 MOL         0.1170 
     10 N9         28.5410    2.7940    3.7680 N.am      1 MOL        -0.5470 
     11 C10        28.4020    1.4870    3.9760 C.2       1 MOL         0.5690 
     12 O10        27.3320    0.9180    4.1860 O.2       1 MOL        -0.5700 
     13 C11        29.7190    0.7060    3.9600 C.3       1 MOL         0.3410 
     14 O11        30.7670    1.5730    3.5180 O.3       1 MOL        -0.6800 
     15 C12        29.5970   -0.4990    3.0240 C.3       1 MOL         0.0000 
     16 C13        30.0200    0.2180    5.3690 C.3       1 MOL         0.2800 
     17 O14        30.1290    1.3470    6.2520 O.3       1 MOL        -0.3625 
     18 C16        29.8710    1.0640    7.5600 C.ar      1 MOL         0.0825 
     19 C17        30.2320   -0.1510    8.1380 C.ar      1 MOL        -0.1500 
     20 C18        29.9980   -0.3860    9.4900 C.ar      1 MOL        -0.1500 
     21 C19        29.4010    0.5970   10.2720 C.ar      1 MOL         0.0730 
     22 C22        29.2150    0.3850   11.6760 C.1       1 MOL         0.4841 
     23 N22        29.0720    0.2250   12.7930 N.1       1 MOL        -0.5571 
     24 C20        29.0320    1.8110    9.6980 C.ar      1 MOL        -0.1500 
     25 C21        29.2670    2.0430    8.3460 C.ar      1 MOL        -0.1500 
     26 H1         25.9251    2.3556    4.1163 H         1 MOL         0.1500 
     27 H2         27.2428    7.0349    3.2291 H         1 MOL         0.1500 
     28 H3         28.9688    5.2688    3.3410 H         1 MOL         0.1500 
     29 H4         29.4705    3.1325    3.6218 H         1 MOL         0.3700 
     30 H5         30.8379    2.3108    4.1123 H         1 MOL         0.4000 
     31 H6         30.5459   -1.0554    3.0171 H         1 MOL         0.0000 
     32 H7         29.3687   -0.1508    2.0058 H         1 MOL         0.0000 
     33 H8         28.7888   -1.1568    3.3764 H         1 MOL         0.0000 
     34 H9         30.9674   -0.3409    5.3693 H         1 MOL         0.0000 
     35 H10        29.2067   -0.4387    5.7116 H         1 MOL         0.0000 
     36 H11        30.6982   -0.9186    7.5309 H         1 MOL         0.1500 
     37 H12        30.2808   -1.3342    9.9328 H         1 MOL         0.1500 
     38 H13        28.5613    2.5760   10.3048 H         1 MOL         0.1500 
     39 H14        28.9789    2.9893    7.9027 H         1 MOL         0.1500 
@<TRIPOS>BOND
     1    1    2 ar   
     2    1    9 ar   
     3    2    3 1    
     4    2    4 ar   
     5    4    5 1    
     6    4    7 ar   
     7    5    6 3    
     8    7    8 ar   
     9    8    9 ar   
    10    9   10 1    
    11   10   11 am   
    12   11   12 2    
    13   11   13 1    
    14   13   14 1    
    15   13   15 1    
    16   13   16 1    
    17   16   17 1    
    18   17   18 1    
    19   18   19 ar   
    20   18   25 ar   
    21   19   20 ar   
    22   20   21 ar   
    23   21   22 1    
    24   21   24 ar   
    25   22   23 3    
    26   24   25 ar   
    27    1   26 1    
    28    7   27 1    
    29    8   28 1    
    30   10   29 1    
    31   14   30 1    
    32   15   31 1    
    33   15   32 1    
    34   15   33 1    
    35   16   34 1    
    36   16   35 1    
    37   19   36 1    
    38   20   37 1    
    39   24   38 1    
    40   25   39 1    
@<TRIPOS>SUBSTRUCTURE
     1 MOL         1 PERM              0 ****  ****    0 ROOT 
@<TRIPOS>NORMAL
@<TRIPOS>ALT_TYPE
MMFF94_ALT_TYPE_SET 
MMFF94 13 CR 15 CR 16 CR 1 CB 2 CB 4 CB 7 CB 8 CB 9 CB 18 CB 19 CB 20 CB \
21 CB 24 CB 25 CB 11 C=ON 5 CSP 22 CSP 26 HC 27 HC 28 HC \
31 HC 32 HC 33 HC 34 HC 35 HC 36 HC 37 HC 38 HC 39 HC \
29 HNCC 30 HOR 12 O=CN 17 OC=C 14 OR 6 NSP 23 NSP 10 NC=O \
3 I 
