#	Name:			2wvt_ligand
#	Creating user name:	suminyi
#	Creation time:		Sun Sep 30 06:50:55 2018

#	Modifying user name:	suminyi
#	Modification time:	Sun Sep 30 06:50:55 2018

@<TRIPOS>MOLECULE
2wvt_ligand
   29    29     1     1     0
SMALL
MMFF94_CHARGES


@<TRIPOS>ATOM
      1 O2        -27.5810    1.0220   29.3190 O.3       1 MOL        -0.6800 
      2 C2        -27.0100    2.1410   28.6800 C.3       1 MOL         0.2800 
      3 C3        -25.6960    1.6730   28.0180 C.3       1 MOL         0.2800 
      4 O3        -24.8780    1.1090   29.0670 O.3       1 MOL        -0.6800 
      5 C4        -24.9850    2.9110   27.4430 C.3       1 MOL         0.2800 
      6 O4        -24.6090    3.6320   28.5960 O.3       1 MOL        -0.6800 
      7 C5        -25.8820    3.7490   26.5070 C.3       1 MOL         0.5030 
      8 C7        -25.1290    5.0360   26.1080 C.3       1 MOL         0.2800 
      9 O7        -25.8990    5.7370   25.1270 O.3       1 MOL        -0.6800 
     10 N         -27.2490    4.0470   27.0880 N.4       1 MOL        -0.9060 
     11 C1        -27.9520    2.8480   27.6890 C.3       1 MOL         0.5030 
     12 C6        -28.5690    1.8800   26.6620 C.3       1 MOL         0.2800 
     13 O6        -29.2950    2.6660   25.7180 O.3       1 MOL        -0.6800 
     14 H1        -26.8480    0.7730   29.9350 H         1 MOL         0.4000 
     15 H2        -26.7760    2.8760   29.4590 H         1 MOL         0.0000 
     16 H3        -25.8870    0.9340   27.2330 H         1 MOL         0.0000 
     17 H4        -24.1710    0.4300   28.7050 H         1 MOL         0.4000 
     18 H5        -24.0910    2.6070   26.9130 H         1 MOL         0.0000 
     19 H6        -24.3480    2.8300   29.1180 H         1 MOL         0.4000 
     20 H7        -26.0590    3.1610   25.6020 H         1 MOL         0.0000 
     21 H8        -24.1390    4.7910   25.7150 H         1 MOL         0.0000 
     22 H9        -24.9990    5.6710   26.9910 H         1 MOL         0.0000 
     23 H10       -25.4830    5.6170   24.2460 H         1 MOL         0.4000 
     24 H11       -27.8450    4.4850   26.3650 H         1 MOL         0.4500 
     25 H12       -27.1890    4.7520   27.8750 H         1 MOL         0.4500 
     26 H13       -28.7870    3.2690   28.2590 H         1 MOL         0.0000 
     27 H14       -29.2470    1.1890   27.1740 H         1 MOL         0.0000 
     28 H15       -27.7950    1.3040   26.1460 H         1 MOL         0.0000 
     29 H16       -28.7010    2.7520   24.8910 H         1 MOL         0.4000 
@<TRIPOS>BOND
     1    1    2 1    
     2    2    3 1    
     3    2   11 1    
     4    3    4 1    
     5    3    5 1    
     6    5    6 1    
     7    5    7 1    
     8    7    8 1    
     9    7   10 1    
    10    8    9 1    
    11   10   11 1    
    12   11   12 1    
    13   12   13 1    
    14    1   14 1    
    15    2   15 1    
    16    3   16 1    
    17    4   17 1    
    18    5   18 1    
    19    6   19 1    
    20    7   20 1    
    21    8   21 1    
    22    8   22 1    
    23    9   23 1    
    24   10   24 1    
    25   10   25 1    
    26   11   26 1    
    27   12   27 1    
    28   12   28 1    
    29   13   29 1    
@<TRIPOS>SUBSTRUCTURE
     1 MOL         1 PERM              0 ****  ****    0 ROOT 
@<TRIPOS>NORMAL
@<TRIPOS>ALT_TYPE
MMFF94_ALT_TYPE_SET 
MMFF94 2 CR 3 CR 5 CR 7 CR 8 CR 11 CR 12 CR 15 HC 16 HC 18 HC 20 HC \
21 HC 22 HC 26 HC 27 HC 28 HC 24 HNR+ 25 HNR+ 14 HOR \
17 HOR 19 HOR 23 HOR 29 HOR 1 OR 4 OR 6 OR 9 OR 13 OR \
10 NR+ 
