#	Name:			3b65_ligand
#	Creating user name:	suminyi
#	Creation time:		Sun Sep 30 06:51:04 2018

#	Modifying user name:	suminyi
#	Modification time:	Sun Sep 30 06:51:04 2018

@<TRIPOS>MOLECULE
3b65_ligand
   39    40     1     1     0
SMALL
MMFF94_CHARGES


@<TRIPOS>ATOM
      1 C5         26.0870    3.5030    3.8890 C.ar      1 MOL        -0.1500 
      2 C4         25.1780    4.5660    3.8870 C.ar      1 MOL         0.0810 
      3 I7         23.1370    4.1400    4.1160 I         1 MOL        -0.0810 
      4 C3         25.6280    5.8830    3.7530 C.ar      1 MOL         0.0730 
      5 C8         24.7410    7.0190    3.7770 C.1       1 MOL         0.4841 
      6 N8         24.0640    7.9380    3.8370 N.1       1 MOL        -0.5571 
      7 C2         26.9890    6.1220    3.6230 C.ar      1 MOL        -0.1500 
      8 C1         27.8910    5.0630    3.6080 C.ar      1 MOL        -0.1500 
      9 C6         27.4570    3.7490    3.7530 C.ar      1 MOL         0.1170 
     10 N9         28.4700    2.7370    3.7590 N.am      1 MOL        -0.5470 
     11 C10        28.4380    1.4280    4.0850 C.2       1 MOL         0.5690 
     12 O10        27.4090    0.8790    4.4210 O.2       1 MOL        -0.5700 
     13 C11        29.7880    0.6810    4.0220 C.3       1 MOL         0.3410 
     14 O11        30.8440    1.5050    3.4900 O.3       1 MOL        -0.6800 
     15 C12        29.6810   -0.5400    3.0820 C.3       1 MOL         0.0000 
     16 C13        30.1820    0.2220    5.4450 C.3       1 MOL         0.2800 
     17 O14        30.0930    1.3370    6.3660 O.3       1 MOL        -0.3625 
     18 C16        29.9440    1.1420    7.7220 C.ar      1 MOL         0.0825 
     19 C17        30.7250    0.2390    8.4370 C.ar      1 MOL        -0.1500 
     20 C18        30.4590    0.0030    9.7880 C.ar      1 MOL        -0.1500 
     21 C19        29.4240    0.6870   10.4250 C.ar      1 MOL         0.0730 
     22 C22        29.0620    0.3570   11.7780 C.1       1 MOL         0.4841 
     23 N22        28.7290    0.0680   12.8300 N.1       1 MOL        -0.5571 
     24 C20        28.6970    1.6500    9.7280 C.ar      1 MOL        -0.1500 
     25 C21        28.9500    1.8560    8.3750 C.ar      1 MOL        -0.1500 
     26 H1         25.7100    2.4910    4.0090 H         1 MOL         0.1500 
     27 H2         27.3440    7.1450    3.5500 H         1 MOL         0.1500 
     28 H3         28.9470    5.2720    3.4890 H         1 MOL         0.1500 
     29 H4         29.4040    3.0590    3.5450 H         1 MOL         0.3700 
     30 H5         31.7030    0.9840    3.3590 H         1 MOL         0.4000 
     31 H6         30.6360   -1.0660    3.0130 H         1 MOL         0.0000 
     32 H7         29.3940   -0.2220    2.0760 H         1 MOL         0.0000 
     33 H8         28.9260   -1.2440    3.4410 H         1 MOL         0.0000 
     34 H9         31.1960   -0.1870    5.4540 H         1 MOL         0.0000 
     35 H10        29.4760   -0.5420    5.7710 H         1 MOL         0.0000 
     36 H11        31.5360   -0.2760    7.9370 H         1 MOL         0.1500 
     37 H12        31.0500   -0.7170   10.3480 H         1 MOL         0.1500 
     38 H13        27.9160    2.2190   10.2260 H         1 MOL         0.1500 
     39 H14        28.3440    2.5390    7.8040 H         1 MOL         0.1500 
@<TRIPOS>BOND
     1    1    2 ar   
     2    1    9 ar   
     3    2    3 1    
     4    2    4 ar   
     5    4    5 1    
     6    4    7 ar   
     7    5    6 3    
     8    7    8 ar   
     9    8    9 ar   
    10    9   10 1    
    11   10   11 am   
    12   11   12 2    
    13   11   13 1    
    14   13   14 1    
    15   13   15 1    
    16   13   16 1    
    17   16   17 1    
    18   17   18 1    
    19   18   19 ar   
    20   18   25 ar   
    21   19   20 ar   
    22   20   21 ar   
    23   21   22 1    
    24   21   24 ar   
    25   22   23 3    
    26   24   25 ar   
    27    1   26 1    
    28    7   27 1    
    29    8   28 1    
    30   10   29 1    
    31   14   30 1    
    32   15   31 1    
    33   15   32 1    
    34   15   33 1    
    35   16   34 1    
    36   16   35 1    
    37   19   36 1    
    38   20   37 1    
    39   24   38 1    
    40   25   39 1    
@<TRIPOS>SUBSTRUCTURE
     1 MOL         1 PERM              0 ****  ****    0 ROOT 
@<TRIPOS>NORMAL
@<TRIPOS>ALT_TYPE
MMFF94_ALT_TYPE_SET 
MMFF94 13 CR 15 CR 16 CR 1 CB 2 CB 4 CB 7 CB 8 CB 9 CB 18 CB 19 CB 20 CB \
21 CB 24 CB 25 CB 11 C=ON 5 CSP 22 CSP 26 HC 27 HC 28 HC \
31 HC 32 HC 33 HC 34 HC 35 HC 36 HC 37 HC 38 HC 39 HC \
29 HNCC 30 HOR 12 O=CN 17 OC=C 14 OR 6 NSP 23 NSP 10 NC=O \
3 I 
